
     RDKit          3D

  3  2  0  0  0  0  0  0  0  0999 V2000
   -1.7260    0.2708   -0.0000 C   0  0  0  0  0  0  0  0  0  0  0  0
   -0.4737    0.7245    0.0000 C   0  0  0  0  0  0  0  0  0  0  0  0
    0.8808   -0.3931    0.0000 Cl  0  0  0  0  0  0  0  0  0  0  0  0
  1  2  2  0
  2  3  1  0
M  END
>  <SMILES>  (1) 
C=CCl

>  <fragment_id>  (1) 
C=CCl_2

$$$$

     RDKit          3D

  3  2  0  0  0  0  0  0  0  0999 V2000
   -1.2596    0.2747   -0.0000 C   0  0  0  0  0  0  0  0  0  0  0  0
   -0.0000   -0.5860   -0.0000 C   0  0  0  0  0  0  0  0  0  0  0  0
    1.2596    0.2747    0.0000 C   0  0  0  0  0  0  0  0  0  0  0  0
  1  2  1  0
  2  3  1  0
M  END
>  <SMILES>  (2) 
CCC

>  <fragment_id>  (2) 
CCC_46

$$$$

     RDKit          3D

  4  3  0  0  0  0  0  0  0  0999 V2000
   -1.2371    0.6492    0.0000 N   0  0  0  0  0  0  0  0  0  0  0  0
   -0.0000   -0.0612   -0.0000 C   0  0  0  0  0  0  0  0  0  0  0  0
    1.2371    0.6492   -0.0000 N   0  0  0  0  0  0  0  0  0  0  0  0
   -0.0000   -1.3206   -0.0000 O   0  0  0  0  0  0  0  0  0  0  0  0
  1  2  1  0
  2  3  1  0
  2  4  2  0
M  END
>  <SMILES>  (3) 
NC(N)=O

>  <fragment_id>  (3) 
NC(N)=O_32

$$$$

     RDKit          3D

  4  3  0  0  0  0  0  0  0  0999 V2000
    1.3092    0.6708   -0.0000 C   0  0  0  0  0  0  0  0  0  0  0  0
   -0.0000   -0.0616   -0.0000 C   0  0  0  0  0  0  0  0  0  0  0  0
   -1.3092    0.6708   -0.0000 C   0  0  0  0  0  0  0  0  0  0  0  0
   -0.0000   -1.2828    0.0000 O   0  0  0  0  0  0  0  0  0  0  0  0
  1  2  1  0
  2  3  1  0
  2  4  2  0
M  END
>  <SMILES>  (4) 
CC(C)=O

>  <fragment_id>  (4) 
CC(C)=O_6

$$$$

     RDKit          3D

  4  4  0  0  0  0  0  0  0  0999 V2000
   -1.4931   -0.2111    0.3154 C   0  0  0  0  0  0  0  0  0  0  0  0
   -0.1388    0.4889    0.2714 C   0  0  1  0  0  0  0  0  0  0  0  0
    1.0574   -0.3775    0.3579 C   0  0  0  0  0  0  0  0  0  0  0  0
    0.5978    0.1329   -0.8740 O   0  0  0  0  0  0  0  0  0  0  0  0
  2  1  1  6
  2  3  1  0
  3  4  1  0
  4  2  1  0
M  END
>  <SMILES>  (5) 
C[C@H]1CO1

>  <fragment_id>  (5) 
C[C@H]1CO1_24

$$$$

     RDKit          3D

  5  4  0  0  0  0  0  0  0  0999 V2000
   -1.5855    0.0000   -0.0001 O   0  0  0  0  0  0  0  0  0  0  0  0
   -0.0743    0.0000   -0.0000 P   0  0  0  0  0  0  0  0  0  0  0  0
    0.4839    0.3139   -1.5665 O   0  0  0  0  0  0  0  0  0  0  0  0
    0.4838    1.1997    1.0552 O   0  0  0  0  0  0  0  0  0  0  0  0
    0.4837   -1.5137    0.5114 O   0  0  0  0  0  0  0  0  0  0  0  0
  1  2  2  0
  2  3  1  0
  2  4  1  0
  2  5  1  0
M  END
>  <SMILES>  (6) 
O=P(O)(O)O

>  <fragment_id>  (6) 
O=P(O)(O)O_4

$$$$

     RDKit          3D

  5  5  0  0  0  0  0  0  0  0999 V2000
    1.1275    0.0132    0.0000 C   0  0  0  0  0  0  0  0  0  0  0  0
    0.3992    1.1504   -0.0000 N   0  0  0  0  0  0  0  0  0  0  0  0
   -0.8638    0.6826   -0.0000 C   0  0  0  0  0  0  0  0  0  0  0  0
   -0.8902   -0.6585   -0.0000 N   0  0  0  0  0  0  0  0  0  0  0  0
    0.3564   -1.0908    0.0000 N   0  0  0  0  0  0  0  0  0  0  0  0
  1  2  1  0
  2  3  2  0
  3  4  1  0
  4  5  1  0
  5  1  2  0
M  END
>  <SMILES>  (7) 
c1nc[nH]n1

>  <fragment_id>  (7) 
c1nc[nH]n1_13

$$$$

     RDKit          3D

  5  5  0  0  0  0  0  0  0  0999 V2000
    0.7583   -1.0387   -0.0003 C   0  0  0  0  0  0  0  0  0  0  0  0
   -0.7149   -1.0125    0.3176 C   0  0  0  0  0  0  0  0  0  0  0  0
   -1.1759    0.3334   -0.2014 C   0  0  0  0  0  0  0  0  0  0  0  0
   -0.0358    1.2482   -0.1444 N   0  0  0  0  0  0  0  0  0  0  0  0
    1.1718    0.4250   -0.0224 C   0  0  0  0  0  0  0  0  0  0  0  0
  1  2  1  0
  2  3  1  0
  3  4  1  0
  4  5  1  0
  5  1  1  0
M  END
>  <SMILES>  (8) 
C1CCNC1

>  <fragment_id>  (8) 
C1CCNC1_21

$$$$

     RDKit          3D

  5  5  0  0  0  0  0  0  0  0999 V2000
    1.2228   -0.3807    0.1055 C   0  0  0  0  0  0  0  0  0  0  0  0
    0.7346    1.0291   -0.1838 C   0  0  0  0  0  0  0  0  0  0  0  0
   -0.7364    1.0278    0.1838 C   0  0  0  0  0  0  0  0  0  0  0  0
   -1.2222   -0.3829   -0.1054 C   0  0  0  0  0  0  0  0  0  0  0  0
    0.0011   -1.2901   -0.0000 C   0  0  0  0  0  0  0  0  0  0  0  0
  1  2  1  0
  2  3  1  0
  3  4  1  0
  4  5  1  0
  5  1  1  0
M  END
>  <SMILES>  (9) 
C1CCCC1

>  <fragment_id>  (9) 
C1CCCC1_41

$$$$

     RDKit          3D

  6  6  0  0  0  0  0  0  0  0999 V2000
   -0.0000    1.3970    0.0000 C   0  0  0  0  0  0  0  0  0  0  0  0
    1.2083    0.6965    0.0000 C   0  0  0  0  0  0  0  0  0  0  0  0
    1.1876   -0.7010   -0.0000 C   0  0  0  0  0  0  0  0  0  0  0  0
    0.0000   -1.3647    0.0000 N   0  0  0  0  0  0  0  0  0  0  0  0
   -1.1876   -0.7010    0.0000 C   0  0  0  0  0  0  0  0  0  0  0  0
   -1.2083    0.6965   -0.0000 C   0  0  0  0  0  0  0  0  0  0  0  0
  1  2  2  0
  2  3  1  0
  3  4  2  0
  4  5  1  0
  5  6  2  0
  6  1  1  0
M  END
>  <SMILES>  (10) 
c1ccncc1

>  <fragment_id>  (10) 
c1ccncc1_34

$$$$

     RDKit          3D

  6  6  0  0  0  0  0  0  0  0999 V2000
   -2.1291   -0.0078    0.2316 C   0  0  0  0  0  0  0  0  0  0  0  0
   -0.7471   -0.0152   -0.4208 C   0  0  1  0  0  0  0  0  0  0  0  0
    0.0566    1.2301   -0.0710 C   0  0  0  0  0  0  0  0  0  0  0  0
    1.4834    0.7451   -0.0772 C   0  0  0  0  0  0  0  0  0  0  0  0
    1.3822   -0.7185    0.3176 C   0  0  0  0  0  0  0  0  0  0  0  0
    0.0197   -1.1786    0.0352 N   0  0  0  0  0  0  0  0  0  0  0  0
  2  1  1  1
  2  3  1  0
  3  4  1  0
  4  5  1  0
  5  6  1  0
  6  2  1  0
M  END
>  <SMILES>  (11) 
C[C@H]1CCCN1

>  <fragment_id>  (11) 
C[C@H]1CCCN1_10

$$$$

     RDKit          3D

  6  6  0  0  0  0  0  0  0  0999 V2000
   -1.3392   -1.5381   -0.0000 O   0  0  0  0  0  0  0  0  0  0  0  0
   -0.5295   -0.5740    0.0000 C   0  0  0  0  0  0  0  0  0  0  0  0
   -0.9354    0.8442    0.0000 C   0  0  0  0  0  0  0  0  0  0  0  0
    0.4060    1.5956    0.0000 C   0  0  0  0  0  0  0  0  0  0  0  0
    1.5285    0.5374   -0.0000 C   0  0  0  0  0  0  0  0  0  0  0  0
    0.8679   -0.7517   -0.0000 N   0  0  0  0  0  0  0  0  0  0  0  0
  1  2  2  0
  2  3  1  0
  3  4  1  0
  4  5  1  0
  5  6  1  0
  6  2  1  0
M  END
>  <SMILES>  (12) 
O=C1CCCN1

>  <fragment_id>  (12) 
O=C1CCCN1_6

$$$$

     RDKit          3D

  7  7  0  0  0  0  0  0  0  0999 V2000
    2.2534    0.5137   -0.0000 O   0  0  0  0  0  0  0  0  0  0  0  0
    0.8954    0.2034    0.0000 C   0  0  0  0  0  0  0  0  0  0  0  0
    0.4666   -1.1324    0.0000 C   0  0  0  0  0  0  0  0  0  0  0  0
   -0.9003   -1.4297   -0.0000 C   0  0  0  0  0  0  0  0  0  0  0  0
   -1.8415   -0.3954   -0.0000 C   0  0  0  0  0  0  0  0  0  0  0  0
   -1.4166    0.9369    0.0000 C   0  0  0  0  0  0  0  0  0  0  0  0
   -0.0501    1.2361   -0.0000 C   0  0  0  0  0  0  0  0  0  0  0  0
  1  2  1  0
  2  3  2  0
  3  4  1  0
  4  5  2  0
  5  6  1  0
  6  7  2  0
  7  2  1  0
M  END
>  <SMILES>  (13) 
Oc1ccccc1

>  <fragment_id>  (13) 
Oc1ccccc1_0

$$$$

     RDKit          3D

  7  7  0  0  0  0  0  0  0  0999 V2000
   -2.4174    0.3754    0.0092 C   0  0  0  0  0  0  0  0  0  0  0  0
   -0.9352    0.1506   -0.0234 C   0  0  0  0  0  0  0  0  0  0  0  0
   -0.0485    1.2363   -0.0046 C   0  0  0  0  0  0  0  0  0  0  0  0
    1.3295    1.0113    0.0029 C   0  0  0  0  0  0  0  0  0  0  0  0
    1.8083   -0.3003    0.0051 C   0  0  0  0  0  0  0  0  0  0  0  0
    0.9364   -1.3435    0.0056 N   0  0  0  0  0  0  0  0  0  0  0  0
   -0.4099   -1.1500   -0.0030 C   0  0  0  0  0  0  0  0  0  0  0  0
  1  2  1  0
  2  3  2  0
  3  4  1  0
  4  5  2  0
  5  6  1  0
  6  7  2  0
  7  2  1  0
M  END
>  <SMILES>  (14) 
Cc1cccnc1

>  <fragment_id>  (14) 
Cc1cccnc1_37

$$$$

     RDKit          3D

  7  7  0  0  0  0  0  0  0  0999 V2000
    2.5496   -0.4065    0.0431 C   0  0  0  0  0  0  0  0  0  0  0  0
    1.1077   -0.0306   -0.0326 C   0  0  0  0  0  0  0  0  0  0  0  0
    0.0457   -0.9081   -0.0372 C   0  0  0  0  0  0  0  0  0  0  0  0
   -1.0795   -0.1766   -0.0429 N   0  0  0  0  0  0  0  0  0  0  0  0
   -2.4457   -0.6759    0.0433 C   0  0  0  0  0  0  0  0  0  0  0  0
   -0.6865    1.1116   -0.0049 C   0  0  0  0  0  0  0  0  0  0  0  0
    0.6575    1.2412    0.0038 N   0  0  0  0  0  0  0  0  0  0  0  0
  1  2  1  0
  2  3  2  0
  3  4  1  0
  4  5  1  0
  4  6  1  0
  6  7  2  0
  7  2  1  0
M  END
>  <SMILES>  (15) 
Cc1cn(C)cn1

>  <fragment_id>  (15) 
Cc1cn(C)cn1_46

$$$$

     RDKit          3D

  7  7  0  0  0  0  0  0  0  0999 V2000
   -0.6524    1.9927    0.3790 C   0  0  0  0  0  0  0  0  0  0  0  0
   -0.2318    0.7500   -0.4086 C   0  0  2  0  0  0  0  0  0  0  0  0
   -1.4199   -0.1916   -0.6477 C   0  0  0  0  0  0  0  0  0  0  0  0
   -1.1225   -1.4246    0.1763 C   0  0  0  0  0  0  0  0  0  0  0  0
    0.3815   -1.4061    0.3360 C   0  0  0  0  0  0  0  0  0  0  0  0
    0.7800    0.0048    0.3633 N   0  0  0  0  0  0  0  0  0  0  0  0
    2.1380    0.1917   -0.1703 C   0  0  0  0  0  0  0  0  0  0  0  0
  2  1  1  1
  2  3  1  0
  3  4  1  0
  4  5  1  0
  5  6  1  0
  6  7  1  0
  6  2  1  0
M  END
>  <SMILES>  (16) 
CC1CCCN1C

>  <fragment_id>  (16) 
CC1CCCN1C_28

$$$$

     RDKit          3D

  7  7  0  0  0  0  0  0  0  0999 V2000
   -0.5849    2.3079   -0.0000 O   0  0  0  0  0  0  0  0  0  0  0  0
   -0.1508    1.1262    0.0000 C   0  0  0  0  0  0  0  0  0  0  0  0
    1.2991    0.7712    0.0000 C   0  0  0  0  0  0  0  0  0  0  0  0
    1.2993   -0.7708    0.0000 C   0  0  0  0  0  0  0  0  0  0  0  0
   -0.1504   -1.1262    0.0000 C   0  0  0  0  0  0  0  0  0  0  0  0
   -0.5842   -2.3080   -0.0000 O   0  0  0  0  0  0  0  0  0  0  0  0
   -1.0030   -0.0002    0.0000 N   0  0  0  0  0  0  0  0  0  0  0  0
  1  2  2  0
  2  3  1  0
  3  4  1  0
  4  5  1  0
  5  6  2  0
  5  7  1  0
  7  2  1  0
M  END
>  <SMILES>  (17) 
O=C1CCC(=O)N1

>  <fragment_id>  (17) 
O=C1CCC(=O)N1_28

$$$$

     RDKit          3D

  8  8  0  0  0  0  0  0  0  0999 V2000
    2.7587    0.3081   -0.0080 C   0  0  0  0  0  0  0  0  0  0  0  0
    1.2598    0.3536    0.0248 C   0  0  0  0  0  0  0  0  0  0  0  0
    0.5887    1.5871    0.0055 C   0  0  0  0  0  0  0  0  0  0  0  0
   -0.8092    1.6275   -0.0014 C   0  0  0  0  0  0  0  0  0  0  0  0
   -1.5446    0.4389   -0.0020 C   0  0  0  0  0  0  0  0  0  0  0  0
   -0.8832   -0.7928   -0.0008 C   0  0  0  0  0  0  0  0  0  0  0  0
   -1.5975   -1.9452   -0.0111 F   0  0  0  0  0  0  0  0  0  0  0  0
    0.5151   -0.8370    0.0061 C   0  0  0  0  0  0  0  0  0  0  0  0
  1  2  1  0
  2  3  2  0
  3  4  1  0
  4  5  2  0
  5  6  1  0
  6  7  1  0
  6  8  2  0
  8  2  1  0
M  END
>  <SMILES>  (18) 
Cc1cccc(F)c1

>  <fragment_id>  (18) 
Cc1cccc(F)c1_30

$$$$

     RDKit          3D

  8  8  0  0  0  0  0  0  0  0999 V2000
   -2.0633    1.3681   -0.0000 O   0  0  0  0  0  0  0  0  0  0  0  0
   -0.9339    0.8114    0.0000 C   0  0  0  0  0  0  0  0  0  0  0  0
    0.1913    1.5690    0.0000 N   0  0  0  0  0  0  0  0  0  0  0  0
    1.4112    0.9762    0.0000 C   0  0  0  0  0  0  0  0  0  0  0  0
    1.5085   -0.3779    0.0000 N   0  0  0  0  0  0  0  0  0  0  0  0
    0.3828   -1.1399    0.0000 C   0  0  0  0  0  0  0  0  0  0  0  0
    0.4723   -2.3970   -0.0000 O   0  0  0  0  0  0  0  0  0  0  0  0
   -0.8396   -0.5447    0.0000 N   0  0  0  0  0  0  0  0  0  0  0  0
  1  2  2  0
  2  3  1  0
  3  4  2  0
  4  5  1  0
  5  6  1  0
  6  7  2  0
  6  8  1  0
  8  2  1  0
M  END
>  <SMILES>  (19) 
O=c1nc[nH]c(=O)[nH]1

>  <fragment_id>  (19) 
O=c1nc[nH]c(=O)[nH]1_21

$$$$

     RDKit          3D

  8  8  0  0  0  0  0  0  0  0999 V2000
    2.4114   -1.0030   -0.0000 N   0  0  0  0  0  0  0  0  0  0  0  0
    1.1768   -0.2901   -0.0000 C   0  0  0  0  0  0  0  0  0  0  0  0
    1.1750    1.0677   -0.0000 N   0  0  0  0  0  0  0  0  0  0  0  0
   -0.0000    1.7460   -0.0000 C   0  0  0  0  0  0  0  0  0  0  0  0
   -1.1750    1.0677    0.0000 N   0  0  0  0  0  0  0  0  0  0  0  0
   -1.1768   -0.2901    0.0000 C   0  0  0  0  0  0  0  0  0  0  0  0
   -2.4114   -1.0030    0.0000 N   0  0  0  0  0  0  0  0  0  0  0  0
    0.0000   -0.9676    0.0000 N   0  0  0  0  0  0  0  0  0  0  0  0
  1  2  1  0
  2  3  2  0
  3  4  1  0
  4  5  2  0
  5  6  1  0
  6  7  1  0
  6  8  2  0
  8  2  1  0
M  END
>  <SMILES>  (20) 
Nc1ncnc(N)n1

>  <fragment_id>  (20) 
Nc1ncnc(N)n1_44

$$$$

     RDKit          3D

  8  8  0  0  0  0  0  0  0  0999 V2000
    2.9053   -0.0000    0.0103 C   0  0  0  0  0  0  0  0  0  0  0  0
    1.4065    0.0000   -0.0243 C   0  0  0  0  0  0  0  0  0  0  0  0
    0.6862   -1.1997   -0.0051 C   0  0  0  0  0  0  0  0  0  0  0  0
   -0.6719   -1.1767    0.0021 N   0  0  0  0  0  0  0  0  0  0  0  0
   -1.3523   -0.0000    0.0021 C   0  0  0  0  0  0  0  0  0  0  0  0
   -2.7779   -0.0000    0.0085 N   0  0  0  0  0  0  0  0  0  0  0  0
   -0.6719    1.1767    0.0021 N   0  0  0  0  0  0  0  0  0  0  0  0
    0.6862    1.1997   -0.0051 C   0  0  0  0  0  0  0  0  0  0  0  0
  1  2  1  0
  2  3  2  0
  3  4  1  0
  4  5  2  0
  5  6  1  0
  5  7  1  0
  7  8  2  0
  8  2  1  0
M  END
>  <SMILES>  (21) 
Cc1cnc(N)nc1

>  <fragment_id>  (21) 
Cc1cnc(N)nc1_44

$$$$

     RDKit          3D

  8  8  0  0  0  0  0  0  0  0999 V2000
   -0.8025   -1.7677   -0.4636 O   0  0  0  0  0  0  0  0  0  0  0  0
   -0.2386   -0.7601    0.3351 C   0  0  1  0  0  0  0  0  0  0  0  0
    1.0570   -0.2747   -0.2440 C   0  0  2  0  0  0  0  0  0  0  0  0
    2.1396   -1.0079    0.2651 O   0  0  0  0  0  0  0  0  0  0  0  0
    1.0958    1.1754    0.2123 C   0  0  0  0  0  0  0  0  0  0  0  0
   -0.2181    1.6204    0.4716 O   0  0  0  0  0  0  0  0  0  0  0  0
   -1.0817    0.5092    0.3562 C   0  0  1  0  0  0  0  0  0  0  0  0
   -1.8301    0.6254   -0.8258 O   0  0  0  0  0  0  0  0  0  0  0  0
  2  1  1  6
  2  3  1  0
  3  4  1  1
  3  5  1  0
  5  6  1  0
  6  7  1  0
  7  8  1  6
  7  2  1  0
M  END
>  <SMILES>  (22) 
O[C@@H]1[C@@H](O)CO[C@@H]1O

>  <fragment_id>  (22) 
O[C@@H]1[C@@H](O)CO[C@@H]1O_22

$$$$

     RDKit          3D

  8  8  0  0  0  0  0  0  0  0999 V2000
   -2.3196   -0.1362    0.4923 C   0  0  0  0  0  0  0  0  0  0  0  0
   -0.8885   -0.0266   -0.0668 C   0  0  0  0  0  0  0  0  0  0  0  0
   -0.9446    0.0760   -1.4714 O   0  0  0  0  0  0  0  0  0  0  0  0
   -0.0989   -1.3035    0.3026 C   0  0  0  0  0  0  0  0  0  0  0  0
    1.3687   -1.2124   -0.1400 C   0  0  0  0  0  0  0  0  0  0  0  0
    2.0485    0.0250    0.4563 C   0  0  0  0  0  0  0  0  0  0  0  0
    1.2850    1.3022    0.0898 C   0  0  0  0  0  0  0  0  0  0  0  0
   -0.1806    1.2141    0.5367 C   0  0  0  0  0  0  0  0  0  0  0  0
  1  2  1  0
  2  3  1  0
  2  4  1  0
  4  5  1  0
  5  6  1  0
  6  7  1  0
  7  8  1  0
  8  2  1  0
M  END
>  <SMILES>  (23) 
CC1(O)CCCCC1

>  <fragment_id>  (23) 
CC1(O)CCCCC1_38

$$$$

     RDKit          3D

  8  8  0  0  0  0  0  0  0  0999 V2000
    2.5940    0.0716   -0.2052 C   0  0  0  0  0  0  0  0  0  0  0  0
    1.1163   -0.0161    0.1722 C   0  0  2  0  0  0  0  0  0  0  0  0
    0.6228   -1.4693    0.0493 C   0  0  0  0  0  0  0  0  0  0  0  0
   -0.8653   -1.5413    0.3867 C   0  0  0  0  0  0  0  0  0  0  0  0
   -1.6418   -0.5170   -0.4411 C   0  0  0  0  0  0  0  0  0  0  0  0
   -0.9990    0.8750   -0.3302 C   0  0  1  0  0  0  0  0  0  0  0  0
   -1.1830    1.4023    0.9595 O   0  0  0  0  0  0  0  0  0  0  0  0
    0.3776    0.8428   -0.6838 O   0  0  0  0  0  0  0  0  0  0  0  0
  2  1  1  6
  2  3  1  0
  3  4  1  0
  4  5  1  0
  5  6  1  0
  6  7  1  1
  6  8  1  0
  8  2  1  0
M  END
>  <SMILES>  (24) 
C[C@H]1CCC[C@H](O)O1

>  <fragment_id>  (24) 
C[C@H]1CCC[C@H](O)O1_44

$$$$

     RDKit          3D

  8  9  0  0  0  0  0  0  0  0999 V2000
    1.7565    0.2531   -0.7085 C   0  0  0  0  0  0  0  0  0  0  0  0
    1.1362    1.3363    0.1552 C   0  0  0  0  0  0  0  0  0  0  0  0
   -0.0976    0.7053    0.8159 C   0  0  1  0  0  0  0  0  0  0  0  0
   -1.4038    1.0498    0.1141 C   0  0  0  0  0  0  0  0  0  0  0  0
   -1.6835   -0.1385   -0.7813 C   0  0  0  0  0  0  0  0  0  0  0  0
   -1.0539   -1.3061   -0.1699 N   0  0  0  0  0  0  0  0  0  0  0  0
    0.0497   -0.8083    0.6619 C   0  0  1  0  0  0  0  0  0  0  0  0
    1.3894   -1.0545   -0.0319 C   0  0  0  0  0  0  0  0  0  0  0  0
  1  2  1  0
  3  2  1  6
  3  4  1  0
  4  5  1  0
  5  6  1  0
  6  7  1  0
  7  8  1  6
  8  1  1  0
  7  3  1  0
M  END
>  <SMILES>  (25) 
C1C[C@H]2CCN[C@H]2C1

>  <fragment_id>  (25) 
C1C[C@H]2CCN[C@H]2C1_39

$$$$

     RDKit          3D

  9 10  0  0  0  0  0  0  0  0999 V2000
   -2.2191   -0.3881   -0.0000 C   0  0  0  0  0  0  0  0  0  0  0  0
   -2.0046    1.0100    0.0000 C   0  0  0  0  0  0  0  0  0  0  0  0
   -0.6962    1.5301    0.0000 C   0  0  0  0  0  0  0  0  0  0  0  0
    0.3573    0.6186   -0.0000 C   0  0  0  0  0  0  0  0  0  0  0  0
    1.6724    0.8649   -0.0000 N   0  0  0  0  0  0  0  0  0  0  0  0
    2.2369   -0.3669    0.0000 C   0  0  0  0  0  0  0  0  0  0  0  0
    1.3302   -1.3800    0.0000 N   0  0  0  0  0  0  0  0  0  0  0  0
    0.1535   -0.7283   -0.0000 C   0  0  0  0  0  0  0  0  0  0  0  0
   -1.1268   -1.2773   -0.0000 C   0  0  0  0  0  0  0  0  0  0  0  0
  1  2  2  0
  2  3  1  0
  3  4  2  0
  4  5  1  0
  5  6  1  0
  6  7  2  0
  7  8  1  0
  8  9  2  0
  9  1  1  0
  8  4  1  0
M  END
>  <SMILES>  (26) 
c1ccc2[nH]cnc2c1

>  <fragment_id>  (26) 
c1ccc2[nH]cnc2c1_48

$$$$

     RDKit          3D

  9  9  0  0  0  0  0  0  0  0999 V2000
   -2.7685    0.3864    0.0046 C   0  0  0  0  0  0  0  0  0  0  0  0
   -1.2676    0.3612   -0.0176 C   0  0  0  0  0  0  0  0  0  0  0  0
   -0.5366    1.5612   -0.0036 C   0  0  0  0  0  0  0  0  0  0  0  0
    0.8614    1.5346    0.0007 C   0  0  0  0  0  0  0  0  0  0  0  0
    1.5392    0.3124    0.0003 C   0  0  0  0  0  0  0  0  0  0  0  0
    2.8948    0.2889    0.0056 F   0  0  0  0  0  0  0  0  0  0  0  0
    0.8193   -0.8857   -0.0005 C   0  0  0  0  0  0  0  0  0  0  0  0
   -0.5797   -0.8652   -0.0048 C   0  0  0  0  0  0  0  0  0  0  0  0
   -1.2622   -2.0384    0.0051 F   0  0  0  0  0  0  0  0  0  0  0  0
  1  2  1  0
  2  3  2  0
  3  4  1  0
  4  5  2  0
  5  6  1  0
  5  7  1  0
  7  8  2  0
  8  9  1  0
  8  2  1  0
M  END
>  <SMILES>  (27) 
Cc1ccc(F)cc1F

>  <fragment_id>  (27) 
Cc1ccc(F)cc1F_40

$$$$

     RDKit          3D

  9  9  0  0  0  0  0  0  0  0999 V2000
   -1.9304    0.0000    0.0000 N   0  0  0  0  0  0  0  0  0  0  0  0
   -0.4939    0.0000    0.0000 C   0  0  0  0  0  0  0  0  0  0  0  0
    0.2230    1.2180    0.0000 C   0  0  0  0  0  0  0  0  0  0  0  0
   -0.5927    2.7777   -0.0000 Cl  0  0  0  0  0  0  0  0  0  0  0  0
    1.6225    1.2080    0.0000 C   0  0  0  0  0  0  0  0  0  0  0  0
    2.3192   -0.0000    0.0000 C   0  0  0  0  0  0  0  0  0  0  0  0
    1.6225   -1.2080    0.0000 C   0  0  0  0  0  0  0  0  0  0  0  0
    0.2230   -1.2180    0.0000 C   0  0  0  0  0  0  0  0  0  0  0  0
   -0.5927   -2.7777   -0.0000 Cl  0  0  0  0  0  0  0  0  0  0  0  0
  1  2  1  0
  2  3  2  0
  3  4  1  0
  3  5  1  0
  5  6  2  0
  6  7  1  0
  7  8  2  0
  8  9  1  0
  8  2  1  0
M  END
>  <SMILES>  (28) 
Nc1c(Cl)cccc1Cl

>  <fragment_id>  (28) 
Nc1c(Cl)cccc1Cl_7

$$$$

     RDKit          3D

  9  9  0  0  0  0  0  0  0  0999 V2000
   -2.5168   -0.5116    0.0906 C   0  0  0  0  0  0  0  0  0  0  0  0
   -1.0136   -0.4722   -0.1911 C   0  0  2  0  0  0  0  0  0  0  0  0
   -0.4249   -1.6322    0.3740 O   0  0  0  0  0  0  0  0  0  0  0  0
    0.9430   -1.7120    0.0206 C   0  0  0  0  0  0  0  0  0  0  0  0
    1.7328   -0.5516    0.6369 C   0  0  0  0  0  0  0  0  0  0  0  0
    1.1470    0.7924    0.1813 C   0  0  1  0  0  0  0  0  0  0  0  0
    1.4279    1.0064   -1.1795 O   0  0  0  0  0  0  0  0  0  0  0  0
   -0.3768    0.8047    0.4083 C   0  0  1  0  0  0  0  0  0  0  0  0
   -0.9419    1.9465   -0.1840 O   0  0  0  0  0  0  0  0  0  0  0  0
  2  1  1  1
  2  3  1  0
  3  4  1  0
  4  5  1  0
  5  6  1  0
  6  7  1  6
  6  8  1  0
  8  9  1  6
  8  2  1  0
M  END
>  <SMILES>  (29) 
C[C@H]1OCC[C@H](O)[C@@H]1O

>  <fragment_id>  (29) 
C[C@H]1OCC[C@H](O)[C@@H]1O_16

$$$$

     RDKit          3D

  9  9  0  0  0  0  0  0  0  0999 V2000
   -2.6680   -0.4556   -0.3047 C   0  0  0  0  0  0  0  0  0  0  0  0
   -1.4282   -0.2137    0.1462 C   0  0  0  0  0  0  0  0  0  0  0  0
   -0.4473   -1.3433    0.3534 C   0  0  0  0  0  0  0  0  0  0  0  0
    0.9503   -0.9430   -0.1408 C   0  0  2  0  0  0  0  0  0  0  0  0
    1.8663   -1.9427    0.2212 O   0  0  0  0  0  0  0  0  0  0  0  0
    1.3824    0.4072    0.4650 C   0  0  0  0  0  0  0  0  0  0  0  0
    0.3783    1.5273    0.1261 C   0  0  1  0  0  0  0  0  0  0  0  0
    0.3489    1.7573   -1.2596 O   0  0  0  0  0  0  0  0  0  0  0  0
   -1.0327    1.1672    0.6147 C   0  0  0  0  0  0  0  0  0  0  0  0
  1  2  2  0
  2  3  1  0
  3  4  1  0
  4  5  1  1
  4  6  1  0
  6  7  1  0
  7  8  1  6
  7  9  1  0
  9  2  1  0
M  END
>  <SMILES>  (30) 
C=C1C[C@@H](O)C[C@H](O)C1

>  <fragment_id>  (30) 
C=C1C[C@@H](O)C[C@H](O)C1_6

$$$$

     RDKit          3D

 10 11  0  0  0  0  0  0  0  0999 V2000
   -2.4275   -0.6988   -0.0000 C   0  0  0  0  0  0  0  0  0  0  0  0
   -2.4275    0.6988    0.0000 C   0  0  0  0  0  0  0  0  0  0  0  0
   -1.2198    1.4029    0.0000 C   0  0  0  0  0  0  0  0  0  0  0  0
   -0.0000    0.7086   -0.0000 C   0  0  0  0  0  0  0  0  0  0  0  0
    1.2198    1.4029    0.0000 C   0  0  0  0  0  0  0  0  0  0  0  0
    2.4275    0.6988    0.0000 C   0  0  0  0  0  0  0  0  0  0  0  0
    2.4275   -0.6988    0.0000 C   0  0  0  0  0  0  0  0  0  0  0  0
    1.2198   -1.4029   -0.0000 C   0  0  0  0  0  0  0  0  0  0  0  0
    0.0000   -0.7086   -0.0000 C   0  0  0  0  0  0  0  0  0  0  0  0
   -1.2198   -1.4029    0.0000 C   0  0  0  0  0  0  0  0  0  0  0  0
  1  2  2  0
  2  3  1  0
  3  4  2  0
  4  5  1  0
  5  6  2  0
  6  7  1  0
  7  8  2  0
  8  9  1  0
  9 10  2  0
 10  1  1  0
  9  4  1  0
M  END
>  <SMILES>  (31) 
c1ccc2ccccc2c1

>  <fragment_id>  (31) 
c1ccc2ccccc2c1_42

$$$$

     RDKit          3D

 10 11  0  0  0  0  0  0  0  0999 V2000
    1.0606    2.2660   -0.0000 O   0  0  0  0  0  0  0  0  0  0  0  0
    0.9614    1.0096   -0.0000 C   0  0  0  0  0  0  0  0  0  0  0  0
    2.1094    0.2094    0.0000 C   0  0  0  0  0  0  0  0  0  0  0  0
    1.9544   -1.1839    0.0000 C   0  0  0  0  0  0  0  0  0  0  0  0
    0.7089   -1.7344   -0.0000 N   0  0  0  0  0  0  0  0  0  0  0  0
   -0.3834   -0.9281   -0.0000 C   0  0  0  0  0  0  0  0  0  0  0  0
   -0.2595    0.4076   -0.0000 N   0  0  0  0  0  0  0  0  0  0  0  0
   -1.5544    1.0619   -0.0000 C   0  0  0  0  0  0  0  0  0  0  0  0
   -2.5844   -0.0858    0.0000 C   0  0  0  0  0  0  0  0  0  0  0  0
   -1.7822   -1.3996   -0.0000 C   0  0  0  0  0  0  0  0  0  0  0  0
  1  2  2  0
  2  3  1  0
  3  4  2  0
  4  5  1  0
  5  6  2  0
  6  7  1  0
  7  8  1  0
  8  9  1  0
  9 10  1  0
  7  2  1  0
 10  6  1  0
M  END
>  <SMILES>  (32) 
O=c1ccnc2n1CCC2

>  <fragment_id>  (32) 
O=c1ccnc2n1CCC2_38

$$$$

     RDKit          3D

 10 11  0  0  0  0  0  0  0  0999 V2000
    2.5169    0.6975    0.0150 C   0  0  0  0  0  0  0  0  0  0  0  0
    2.5169   -0.6975   -0.0150 C   0  0  0  0  0  0  0  0  0  0  0  0
    1.3087   -1.3978   -0.0279 C   0  0  0  0  0  0  0  0  0  0  0  0
    0.0856   -0.7083   -0.0012 C   0  0  0  0  0  0  0  0  0  0  0  0
    0.0856    0.7083    0.0012 C   0  0  0  0  0  0  0  0  0  0  0  0
    1.3087    1.3978    0.0279 C   0  0  0  0  0  0  0  0  0  0  0  0
   -1.1996    1.4981    0.0861 C   0  0  0  0  0  0  0  0  0  0  0  0
   -2.4220    0.6821   -0.3447 C   0  0  0  0  0  0  0  0  0  0  0  0
   -2.4220   -0.6821    0.3447 C   0  0  0  0  0  0  0  0  0  0  0  0
   -1.1996   -1.4981   -0.0861 C   0  0  0  0  0  0  0  0  0  0  0  0
  1  2  2  0
  2  3  1  0
  3  4  2  0
  4  5  1  0
  5  6  2  0
  5  7  1  0
  7  8  1  0
  8  9  1  0
  9 10  1  0
  6  1  1  0
 10  4  1  0
M  END
>  <SMILES>  (33) 
c1ccc2c(c1)CCCC2

>  <fragment_id>  (33) 
c1ccc2c(c1)CCCC2_10

$$$$

     RDKit          3D

 10 11  0  0  0  0  0  0  0  0999 V2000
   -2.1627   -1.5371    0.0000 N   0  0  0  0  0  0  0  0  0  0  0  0
   -1.2992   -0.4001    0.0000 C   0  0  0  0  0  0  0  0  0  0  0  0
   -1.8150    0.8657    0.0000 N   0  0  0  0  0  0  0  0  0  0  0  0
   -0.9998    1.9697   -0.0000 C   0  0  0  0  0  0  0  0  0  0  0  0
    0.3606    1.8280   -0.0000 N   0  0  0  0  0  0  0  0  0  0  0  0
    0.8667    0.5717   -0.0000 C   0  0  0  0  0  0  0  0  0  0  0  0
    2.1544    0.2173   -0.0000 N   0  0  0  0  0  0  0  0  0  0  0  0
    2.1072   -1.1390    0.0000 C   0  0  0  0  0  0  0  0  0  0  0  0
    0.8416   -1.6427    0.0000 N   0  0  0  0  0  0  0  0  0  0  0  0
    0.0849   -0.5306   -0.0000 C   0  0  0  0  0  0  0  0  0  0  0  0
  1  2  1  0
  2  3  2  0
  3  4  1  0
  4  5  2  0
  5  6  1  0
  6  7  1  0
  7  8  1  0
  8  9  2  0
  9 10  1  0
 10  2  1  0
 10  6  2  0
M  END
>  <SMILES>  (34) 
Nc1ncnc2[nH]cnc12

>  <fragment_id>  (34) 
Nc1ncnc2[nH]cnc12_12

$$$$

     RDKit          3D

 10 10  0  0  0  0  0  0  0  0999 V2000
    1.4842    2.0076   -0.0232 C   0  0  0  0  0  0  0  0  0  0  0  0
    0.7102    0.7101   -0.0175 C   0  0  0  0  0  0  0  0  0  0  0  0
    1.4045   -0.5188    0.0029 C   0  0  0  0  0  0  0  0  0  0  0  0
    2.7996   -0.5422    0.0203 O   0  0  0  0  0  0  0  0  0  0  0  0
    0.6959   -1.7249    0.0058 C   0  0  0  0  0  0  0  0  0  0  0  0
   -0.6959   -1.7249   -0.0058 C   0  0  0  0  0  0  0  0  0  0  0  0
   -1.4045   -0.5188   -0.0029 C   0  0  0  0  0  0  0  0  0  0  0  0
   -2.7996   -0.5422   -0.0203 O   0  0  0  0  0  0  0  0  0  0  0  0
   -0.7102    0.7101    0.0175 C   0  0  0  0  0  0  0  0  0  0  0  0
   -1.4842    2.0076    0.0232 C   0  0  0  0  0  0  0  0  0  0  0  0
  1  2  1  0
  2  3  2  0
  3  4  1  0
  3  5  1  0
  5  6  2  0
  6  7  1  0
  7  8  1  0
  7  9  2  0
  9 10  1  0
  9  2  1  0
M  END
>  <SMILES>  (35) 
Cc1c(O)ccc(O)c1C

>  <fragment_id>  (35) 
Cc1c(O)ccc(O)c1C_39

$$$$

     RDKit          3D

 10 10  0  0  0  0  0  0  0  0999 V2000
   -2.2170    1.6434   -0.0122 C   0  0  0  0  0  0  0  0  0  0  0  0
   -0.9335    0.8489   -0.0038 C   0  0  0  0  0  0  0  0  0  0  0  0
    0.2816    1.5447    0.0110 C   0  0  0  0  0  0  0  0  0  0  0  0
    1.4709    0.8272    0.0103 C   0  0  0  0  0  0  0  0  0  0  0  0
    2.5741    1.4360    0.0194 O   0  0  0  0  0  0  0  0  0  0  0  0
    1.4416   -0.5285   -0.0052 N   0  0  0  0  0  0  0  0  0  0  0  0
    0.2624   -1.2078   -0.0078 C   0  0  0  0  0  0  0  0  0  0  0  0
    0.2866   -2.4694   -0.0361 O   0  0  0  0  0  0  0  0  0  0  0  0
   -0.9335   -0.5287    0.0183 N   0  0  0  0  0  0  0  0  0  0  0  0
   -2.2065   -1.2733    0.0101 C   0  0  0  0  0  0  0  0  0  0  0  0
  1  2  1  0
  2  3  2  0
  3  4  1  0
  4  5  2  0
  4  6  1  0
  6  7  1  0
  7  8  2  0
  7  9  1  0
  9 10  1  0
  9  2  1  0
M  END
>  <SMILES>  (36) 
Cc1cc(=O)[nH]c(=O)n1C

>  <fragment_id>  (36) 
Cc1cc(=O)[nH]c(=O)n1C_29

$$$$

     RDKit          3D

 10 10  0  0  0  0  0  0  0  0999 V2000
   -1.1499    1.1192    1.1934 N   0  0  0  0  0  0  0  0  0  0  0  0
   -0.9610    0.6176   -0.1719 C   0  0  2  0  0  0  0  0  0  0  0  0
   -1.0072   -0.9304   -0.1928 C   0  0  2  0  0  0  0  0  0  0  0  0
   -2.2111   -1.3887    0.3636 O   0  0  0  0  0  0  0  0  0  0  0  0
    0.0675   -1.4647    0.5596 O   0  0  0  0  0  0  0  0  0  0  0  0
    1.3003   -1.1621   -0.0682 C   0  0  0  0  0  0  0  0  0  0  0  0
    1.5671    0.3544   -0.0695 C   0  0  2  0  0  0  0  0  0  0  0  0
    1.7295    0.8159    1.2473 O   0  0  0  0  0  0  0  0  0  0  0  0
    0.3970    1.0987   -0.7392 C   0  0  1  0  0  0  0  0  0  0  0  0
    0.4434    0.8732   -2.1260 O   0  0  0  0  0  0  0  0  0  0  0  0
  2  1  1  1
  2  3  1  0
  3  4  1  1
  3  5  1  0
  5  6  1  0
  6  7  1  0
  7  8  1  1
  7  9  1  0
  9 10  1  6
  9  2  1  0
M  END
>  <SMILES>  (37) 
N[C@H]1C(O)OC[C@@H](O)[C@@H]1O

>  <fragment_id>  (37) 
N[C@H]1C(O)OC[C@@H](O)[C@@H]1O_29

$$$$

     RDKit          3D

 11 12  0  0  0  0  0  0  0  0999 V2000
    1.5795   -2.3235    0.0000 O   0  0  0  0  0  0  0  0  0  0  0  0
    1.1849   -1.1280   -0.0000 C   0  0  0  0  0  0  0  0  0  0  0  0
    2.0584    0.0000   -0.0000 N   0  0  0  0  0  0  0  0  0  0  0  0
    1.1849    1.1280   -0.0000 C   0  0  0  0  0  0  0  0  0  0  0  0
    1.5795    2.3235    0.0000 O   0  0  0  0  0  0  0  0  0  0  0  0
   -0.2061    0.6892   -0.0000 C   0  0  0  0  0  0  0  0  0  0  0  0
   -1.3935    1.4192    0.0000 C   0  0  0  0  0  0  0  0  0  0  0  0
   -2.6059    0.7061    0.0000 C   0  0  0  0  0  0  0  0  0  0  0  0
   -2.6059   -0.7061    0.0000 C   0  0  0  0  0  0  0  0  0  0  0  0
   -1.3935   -1.4192    0.0000 C   0  0  0  0  0  0  0  0  0  0  0  0
   -0.2061   -0.6892    0.0000 C   0  0  0  0  0  0  0  0  0  0  0  0
  1  2  2  0
  2  3  1  0
  3  4  1  0
  4  5  2  0
  4  6  1  0
  6  7  2  0
  7  8  1  0
  8  9  2  0
  9 10  1  0
 10 11  2  0
 11  2  1  0
 11  6  1  0
M  END
>  <SMILES>  (38) 
O=C1NC(=O)c2ccccc21

>  <fragment_id>  (38) 
O=C1NC(=O)c2ccccc21_25

$$$$

     RDKit          3D

 11 11  0  0  0  0  0  0  0  0999 V2000
   -2.8957    0.2400    0.0000 C   0  0  0  0  0  0  0  0  0  0  0  0
   -1.3867    0.2599    0.0000 C   0  0  0  0  0  0  0  0  0  0  0  0
   -0.6821    1.4848   -0.0000 C   0  0  0  0  0  0  0  0  0  0  0  0
   -1.3919    2.6889   -0.0000 O   0  0  0  0  0  0  0  0  0  0  0  0
    0.7265    1.4810    0.0000 C   0  0  0  0  0  0  0  0  0  0  0  0
    1.6547    2.9755    0.0000 Cl  0  0  0  0  0  0  0  0  0  0  0  0
    1.4221    0.2710    0.0000 C   0  0  0  0  0  0  0  0  0  0  0  0
    0.7352   -0.9434   -0.0000 C   0  0  0  0  0  0  0  0  0  0  0  0
    1.6661   -2.4367   -0.0000 Cl  0  0  0  0  0  0  0  0  0  0  0  0
   -0.6695   -0.9575   -0.0000 C   0  0  0  0  0  0  0  0  0  0  0  0
   -1.5250   -2.5035   -0.0000 Cl  0  0  0  0  0  0  0  0  0  0  0  0
  1  2  1  0
  2  3  2  0
  3  4  1  0
  3  5  1  0
  5  6  1  0
  5  7  2  0
  7  8  1  0
  8  9  1  0
  8 10  2  0
 10 11  1  0
 10  2  1  0
M  END
>  <SMILES>  (39) 
Cc1c(O)c(Cl)cc(Cl)c1Cl

>  <fragment_id>  (39) 
Cc1c(O)c(Cl)cc(Cl)c1Cl_9

$$$$

     RDKit          3D

 11 11  0  0  0  0  0  0  0  0999 V2000
    2.9801   -0.3713    0.1441 C   0  0  0  0  0  0  0  0  0  0  0  0
    1.5151   -0.2980   -0.2907 C   0  0  1  0  0  0  0  0  0  0  0  0
    0.8188   -1.3765    0.3102 O   0  0  0  0  0  0  0  0  0  0  0  0
   -0.5100   -1.4442   -0.1786 C   0  0  1  0  0  0  0  0  0  0  0  0
   -1.1291   -2.5862    0.3477 O   0  0  0  0  0  0  0  0  0  0  0  0
   -1.3034   -0.2025    0.2608 C   0  0  2  0  0  0  0  0  0  0  0  0
   -2.6066   -0.2798   -0.2578 O   0  0  0  0  0  0  0  0  0  0  0  0
   -0.6046    1.0697   -0.2550 C   0  0  1  0  0  0  0  0  0  0  0  0
   -1.2097    2.2088    0.3017 O   0  0  0  0  0  0  0  0  0  0  0  0
    0.8858    1.0497    0.1285 C   0  0  2  0  0  0  0  0  0  0  0  0
    1.5542    2.1039   -0.5169 O   0  0  0  0  0  0  0  0  0  0  0  0
  2  1  1  1
  2  3  1  0
  3  4  1  0
  4  5  1  1
  4  6  1  0
  6  7  1  6
  6  8  1  0
  8  9  1  1
  8 10  1  0
 10 11  1  6
 10  2  1  0
M  END
>  <SMILES>  (40) 
C[C@H]1O[C@@H](O)[C@H](O)[C@@H](O)[C@@H]1O

>  <fragment_id>  (40) 
C[C@H]1O[C@@H](O)[C@H](O)[C@@H](O)[C@@H]1O_9

$$$$

     RDKit          3D

 11 12  0  0  0  0  0  0  0  0999 V2000
    3.5882   -0.3994   -0.2542 C   0  0  0  0  0  0  0  0  0  0  0  0
    2.1647   -0.0563    0.0789 C   0  0  0  0  0  0  0  0  0  0  0  0
    1.2956   -1.0461    0.3326 C   0  0  0  0  0  0  0  0  0  0  0  0
   -0.0713   -0.7235    0.5546 N   0  0  0  0  0  0  0  0  0  0  0  0
   -1.3805   -1.3634    0.3040 C   0  0  0  0  0  0  0  0  0  0  0  0
   -1.7718   -2.5408    0.0926 O   0  0  0  0  0  0  0  0  0  0  0  0
   -2.0353   -0.0145    0.3479 C   0  0  2  0  0  0  0  0  0  0  0  0
   -2.5442    0.3688   -0.9670 N   0  0  0  0  0  0  0  0  0  0  0  0
   -0.7398    0.5458    0.6740 C   0  0  2  0  0  0  0  0  0  0  0  0
    0.0452    1.7002   -0.5098 S   0  0  0  0  0  0  0  0  0  0  0  0
    1.7345    1.4007    0.1619 C   0  0  0  0  0  0  0  0  0  0  0  0
  1  2  1  0
  2  3  2  0
  3  4  1  0
  4  5  1  0
  5  6  2  0
  5  7  1  0
  7  8  1  6
  7  9  1  0
  9 10  1  6
 10 11  1  0
 11  2  1  0
  9  4  1  0
M  END
>  <SMILES>  (41) 
CC1=CN2C(=O)[C@@H](N)[C@H]2SC1

>  <fragment_id>  (41) 
CC1=CN2C(=O)[C@@H](N)[C@H]2SC1_13

$$$$

     RDKit          3D

 12 13  0  0  0  0  0  0  0  0999 V2000
   -2.7314   -1.7646   -0.0271 C   0  0  0  0  0  0  0  0  0  0  0  0
   -1.9495   -0.5369    0.0481 N   0  0  0  0  0  0  0  0  0  0  0  0
   -2.4066    0.7407    0.0106 C   0  0  0  0  0  0  0  0  0  0  0  0
   -1.4095    1.6691   -0.0040 N   0  0  0  0  0  0  0  0  0  0  0  0
   -0.2978    0.9088    0.0136 C   0  0  0  0  0  0  0  0  0  0  0  0
    1.0344    1.2935   -0.0137 C   0  0  0  0  0  0  0  0  0  0  0  0
    1.3617    2.5099   -0.0377 O   0  0  0  0  0  0  0  0  0  0  0  0
    1.9857    0.3098   -0.0169 N   0  0  0  0  0  0  0  0  0  0  0  0
    1.6328   -1.0208    0.0002 C   0  0  0  0  0  0  0  0  0  0  0  0
    2.6419   -2.0304   -0.0086 N   0  0  0  0  0  0  0  0  0  0  0  0
    0.3136   -1.3852    0.0241 N   0  0  0  0  0  0  0  0  0  0  0  0
   -0.6191   -0.4032    0.0350 C   0  0  0  0  0  0  0  0  0  0  0  0
  1  2  1  0
  2  3  1  0
  3  4  2  0
  4  5  1  0
  5  6  1  0
  6  7  2  0
  6  8  1  0
  8  9  1  0
  9 10  1  0
  9 11  2  0
 11 12  1  0
 12  2  1  0
 12  5  2  0
M  END
>  <SMILES>  (42) 
Cn1cnc2c(=O)[nH]c(N)nc21

>  <fragment_id>  (42) 
Cn1cnc2c(=O)[nH]c(N)nc21_2

$$$$

     RDKit          3D

 12 13  0  0  0  0  0  0  0  0999 V2000
   -2.7319   -1.5443    0.0000 N   0  0  0  0  0  0  0  0  0  0  0  0
   -1.9134   -0.3675   -0.0000 C   0  0  0  0  0  0  0  0  0  0  0  0
   -2.5337    0.8430    0.0000 N   0  0  0  0  0  0  0  0  0  0  0  0
   -1.8362    2.0060   -0.0000 C   0  0  0  0  0  0  0  0  0  0  0  0
   -0.4814    1.9866   -0.0000 N   0  0  0  0  0  0  0  0  0  0  0  0
    0.2025    0.8141   -0.0000 C   0  0  0  0  0  0  0  0  0  0  0  0
    1.6018    0.8330   -0.0000 C   0  0  0  0  0  0  0  0  0  0  0  0
    2.3227   -0.3665   -0.0000 C   0  0  0  0  0  0  0  0  0  0  0  0
    3.7158   -0.3577    0.0000 O   0  0  0  0  0  0  0  0  0  0  0  0
    1.6414   -1.5857    0.0000 C   0  0  0  0  0  0  0  0  0  0  0  0
    0.2434   -1.6181    0.0000 C   0  0  0  0  0  0  0  0  0  0  0  0
   -0.4973   -0.4173   -0.0000 C   0  0  0  0  0  0  0  0  0  0  0  0
  1  2  1  0
  2  3  2  0
  3  4  1  0
  4  5  2  0
  5  6  1  0
  6  7  2  0
  7  8  1  0
  8  9  1  0
  8 10  2  0
 10 11  1  0
 11 12  2  0
 12  2  1  0
 12  6  1  0
M  END
>  <SMILES>  (43) 
Nc1ncnc2cc(O)ccc12

>  <fragment_id>  (43) 
Nc1ncnc2cc(O)ccc12_14

$$$$

     RDKit          3D

 13 14  0  0  0  0  0  0  0  0999 V2000
   -1.0374   -1.8689    1.1567 C   0  0  0  0  0  0  0  0  0  0  0  0
   -0.8423   -0.9975   -0.1094 C   0  0  2  0  0  0  0  0  0  0  0  0
    0.5973   -0.5109   -0.1304 C   0  0  0  0  0  0  0  0  0  0  0  0
    1.6228   -1.3963   -0.5096 C   0  0  0  0  0  0  0  0  0  0  0  0
    2.9591   -0.9941   -0.4659 C   0  0  0  0  0  0  0  0  0  0  0  0
    3.2876    0.2933   -0.0414 C   0  0  0  0  0  0  0  0  0  0  0  0
    2.2801    1.1836    0.3354 C   0  0  0  0  0  0  0  0  0  0  0  0
    0.9325    0.7896    0.3039 C   0  0  0  0  0  0  0  0  0  0  0  0
   -0.1268    1.8128    0.6123 C   0  0  0  0  0  0  0  0  0  0  0  0
   -1.5370    1.2138    0.7494 C   0  0  0  0  0  0  0  0  0  0  0  0
   -1.8239    0.1365   -0.2407 N   0  0  0  0  0  0  0  0  0  0  0  0
   -1.7674    0.6843   -1.6249 C   0  0  0  0  0  0  0  0  0  0  0  0
   -3.2177   -0.3354   -0.0260 C   0  0  0  0  0  0  0  0  0  0  0  0
  2  1  1  1
  2  3  1  0
  3  4  2  0
  4  5  1  0
  5  6  2  0
  6  7  1  0
  7  8  2  0
  8  9  1  0
  9 10  1  0
 10 11  1  0
 11 12  1  0
 11 13  1  0
 11  2  1  0
  8  3  1  0
M  CHG  1  11   1
M  END
>  <SMILES>  (44) 
C[C@@H]1c2ccccc2CC[N+]1(C)C

>  <fragment_id>  (44) 
C[C@@H]1c2ccccc2CC[N+]1(C)C_2

$$$$

     RDKit          3D

 13 14  0  0  0  0  0  0  0  0999 V2000
   -3.9720    0.2850    0.0000 C   0  0  0  0  0  0  0  0  0  0  0  0
   -2.5394   -0.1427   -0.0000 C   0  0  0  0  0  0  0  0  0  0  0  0
   -2.2005   -1.5036   -0.0000 C   0  0  0  0  0  0  0  0  0  0  0  0
   -0.8912   -1.8705   -0.0000 N   0  0  0  0  0  0  0  0  0  0  0  0
    0.0969   -0.9387   -0.0000 C   0  0  0  0  0  0  0  0  0  0  0  0
    1.4000   -1.3174    0.0000 N   0  0  0  0  0  0  0  0  0  0  0  0
    2.3938   -0.3888    0.0000 C   0  0  0  0  0  0  0  0  0  0  0  0
    3.7572   -0.8049    0.0000 N   0  0  0  0  0  0  0  0  0  0  0  0
    2.0877    0.9374    0.0000 N   0  0  0  0  0  0  0  0  0  0  0  0
    0.7975    1.3691   -0.0000 C   0  0  0  0  0  0  0  0  0  0  0  0
    0.5251    2.7729   -0.0000 N   0  0  0  0  0  0  0  0  0  0  0  0
   -0.2387    0.4255   -0.0000 C   0  0  0  0  0  0  0  0  0  0  0  0
   -1.5487    0.7907   -0.0000 N   0  0  0  0  0  0  0  0  0  0  0  0
  1  2  1  0
  2  3  2  0
  3  4  1  0
  4  5  2  0
  5  6  1  0
  6  7  2  0
  7  8  1  0
  7  9  1  0
  9 10  2  0
 10 11  1  0
 10 12  1  0
 12 13  2  0
 13  2  1  0
 12  5  1  0
M  END
>  <SMILES>  (45) 
Cc1cnc2nc(N)nc(N)c2n1

>  <fragment_id>  (45) 
Cc1cnc2nc(N)nc(N)c2n1_48

$$$$

     RDKit          3D

 13 14  0  0  0  0  0  0  0  0999 V2000
   -1.6243    2.6050   -0.0000 O   0  0  0  0  0  0  0  0  0  0  0  0
   -1.5901    1.3442   -0.0000 C   0  0  0  0  0  0  0  0  0  0  0  0
   -2.7883    0.6275    0.0000 C   0  0  0  0  0  0  0  0  0  0  0  0
   -2.7591   -0.7669    0.0000 C   0  0  0  0  0  0  0  0  0  0  0  0
   -1.5723   -1.4315   -0.0000 N   0  0  0  0  0  0  0  0  0  0  0  0
   -0.3794   -0.7654   -0.0000 C   0  0  0  0  0  0  0  0  0  0  0  0
    0.8369   -1.4725   -0.0000 C   0  0  0  0  0  0  0  0  0  0  0  0
    0.8493   -2.8297    0.0000 F   0  0  0  0  0  0  0  0  0  0  0  0
    2.0513   -0.7809   -0.0000 C   0  0  0  0  0  0  0  0  0  0  0  0
    2.0674    0.6155   -0.0000 C   0  0  0  0  0  0  0  0  0  0  0  0
    3.2508    1.2774    0.0000 F   0  0  0  0  0  0  0  0  0  0  0  0
    0.8682    1.3323    0.0000 C   0  0  0  0  0  0  0  0  0  0  0  0
   -0.3641    0.6526   -0.0000 C   0  0  0  0  0  0  0  0  0  0  0  0
  1  2  2  0
  2  3  1  0
  3  4  2  0
  4  5  1  0
  5  6  1  0
  6  7  2  0
  7  8  1  0
  7  9  1  0
  9 10  2  0
 10 11  1  0
 10 12  1  0
 12 13  2  0
 13  2  1  0
 13  6  1  0
M  END
>  <SMILES>  (46) 
O=c1cc[nH]c2c(F)cc(F)cc12

>  <fragment_id>  (46) 
O=c1cc[nH]c2c(F)cc(F)cc12_30

$$$$

     RDKit          3D

 14 15  0  0  0  0  0  0  0  0999 V2000
   -4.0366    0.1064    0.1584 C   0  0  0  0  0  0  0  0  0  0  0  0
   -2.6429   -0.2393    0.4621 N   0  0  0  0  0  0  0  0  0  0  0  0
   -2.2309   -1.4314   -0.2937 C   0  0  0  0  0  0  0  0  0  0  0  0
   -0.8766   -1.8342    0.0902 N   0  0  0  0  0  0  0  0  0  0  0  0
    0.2399   -0.9300    0.0322 C   0  0  0  0  0  0  0  0  0  0  0  0
    1.5498   -1.4322    0.0554 C   0  0  0  0  0  0  0  0  0  0  0  0
    2.6419   -0.5587   -0.0043 C   0  0  0  0  0  0  0  0  0  0  0  0
    4.2763   -1.1952    0.0151 Cl  0  0  0  0  0  0  0  0  0  0  0  0
    2.4302    0.8220   -0.0801 C   0  0  0  0  0  0  0  0  0  0  0  0
    1.1290    1.3314   -0.0892 C   0  0  0  0  0  0  0  0  0  0  0  0
    0.0355    0.4593   -0.0279 C   0  0  0  0  0  0  0  0  0  0  0  0
   -1.6010    1.0834    0.0146 S   0  0  0  0  0  0  0  0  0  0  0  0
   -1.7074    2.1727    1.0446 O   0  0  0  0  0  0  0  0  0  0  0  0
   -1.9700    1.6203   -1.3410 O   0  0  0  0  0  0  0  0  0  0  0  0
  1  2  1  0
  2  3  1  0
  3  4  1  0
  4  5  1  0
  5  6  2  0
  6  7  1  0
  7  8  1  0
  7  9  2  0
  9 10  1  0
 10 11  2  0
 11 12  1  0
 12 13  2  0
 12 14  2  0
 12  2  1  0
 11  5  1  0
M  END
>  <SMILES>  (47) 
CN1CNc2cc(Cl)ccc2S1(=O)=O

>  <fragment_id>  (47) 
CN1CNc2cc(Cl)ccc2S1(=O)=O_31

$$$$

     RDKit          3D

 15 17  0  0  0  0  0  0  0  0999 V2000
    0.0000    2.8183    0.4838 C   0  0  0  0  0  0  0  0  0  0  0  0
    0.0000    1.3715    0.2505 N   0  0  0  0  0  0  0  0  0  0  0  0
   -1.2370    0.6578    0.0294 C   0  0  0  0  0  0  0  0  0  0  0  0
   -2.3212    1.2654   -0.6304 C   0  0  0  0  0  0  0  0  0  0  0  0
   -3.4461    0.5112   -0.9789 C   0  0  0  0  0  0  0  0  0  0  0  0
   -3.4940   -0.8546   -0.6874 C   0  0  0  0  0  0  0  0  0  0  0  0
   -2.4257   -1.4675   -0.0279 C   0  0  0  0  0  0  0  0  0  0  0  0
   -1.3085   -0.7128    0.3450 C   0  0  0  0  0  0  0  0  0  0  0  0
   -0.0000   -1.4643    1.3166 S   0  0  0  0  0  0  0  0  0  0  0  0
    1.3085   -0.7128    0.3450 C   0  0  0  0  0  0  0  0  0  0  0  0
    2.4257   -1.4675   -0.0279 C   0  0  0  0  0  0  0  0  0  0  0  0
    3.4940   -0.8546   -0.6874 C   0  0  0  0  0  0  0  0  0  0  0  0
    3.4461    0.5112   -0.9789 C   0  0  0  0  0  0  0  0  0  0  0  0
    2.3212    1.2654   -0.6304 C   0  0  0  0  0  0  0  0  0  0  0  0
    1.2370    0.6578    0.0294 C   0  0  0  0  0  0  0  0  0  0  0  0
  1  2  1  0
  2  3  1  0
  3  4  2  0
  4  5  1  0
  5  6  2  0
  6  7  1  0
  7  8  2  0
  8  9  1  0
  9 10  1  0
 10 11  2  0
 11 12  1  0
 12 13  2  0
 13 14  1  0
 14 15  2  0
 15  2  1  0
  8  3  1  0
 15 10  1  0
M  END
>  <SMILES>  (48) 
CN1c2ccccc2Sc2ccccc21

>  <fragment_id>  (48) 
CN1c2ccccc2Sc2ccccc21_20

$$$$

     RDKit          3D

 16 18  0  0  0  0  0  0  0  0999 V2000
   -3.4540    0.2361   -1.3450 C   0  0  0  0  0  0  0  0  0  0  0  0
   -3.0788   -0.0871    0.1060 C   0  0  2  0  0  0  0  0  0  0  0  0
   -2.2107    1.0227    0.7213 C   0  0  0  0  0  0  0  0  0  0  0  0
   -0.8493    0.9948    0.1471 N   0  0  0  0  0  0  0  0  0  0  0  0
   -0.0935    2.1833    0.5717 C   0  0  0  0  0  0  0  0  0  0  0  0
    1.1776    2.2839   -0.2622 C   0  0  0  0  0  0  0  0  0  0  0  0
    1.9574    0.9999   -0.2103 C   0  0  0  0  0  0  0  0  0  0  0  0
    3.3189    1.0180   -0.5523 C   0  0  0  0  0  0  0  0  0  0  0  0
    4.0791   -0.1495   -0.4871 C   0  0  0  0  0  0  0  0  0  0  0  0
    3.4899   -1.3423   -0.0717 C   0  0  0  0  0  0  0  0  0  0  0  0
    2.1326   -1.3782    0.2552 C   0  0  0  0  0  0  0  0  0  0  0  0
    1.3331   -0.2214    0.1432 C   0  0  0  0  0  0  0  0  0  0  0  0
   -0.1451   -0.2551    0.5394 C   0  0  2  0  0  0  0  0  0  0  0  0
   -0.8704   -1.4589   -0.1040 C   0  0  0  0  0  0  0  0  0  0  0  0
   -2.3488   -1.4024    0.1705 C   0  0  0  0  0  0  0  0  0  0  0  0
   -2.9730   -2.4359    0.3580 O   0  0  0  0  0  0  0  0  0  0  0  0
  2  1  1  6
  2  3  1  0
  3  4  1  0
  4  5  1  0
  5  6  1  0
  6  7  1  0
  7  8  2  0
  8  9  1  0
  9 10  2  0
 10 11  1  0
 11 12  2  0
 12 13  1  0
 13 14  1  6
 14 15  1  0
 15 16  2  0
 15  2  1  0
 13  4  1  0
 12  7  1  0
M  END
>  <SMILES>  (49) 
CC1CN2CCc3ccccc3C2CC1=O

>  <fragment_id>  (49) 
CC1CN2CCc3ccccc3C2CC1=O_44

$$$$

     RDKit          3D

 18 20  0  0  0  0  0  0  0  0999 V2000
   -0.0000   -3.0718   -0.0000 O   0  0  0  0  0  0  0  0  0  0  0  0
   -0.0000   -1.8096   -0.0000 C   0  0  0  0  0  0  0  0  0  0  0  0
   -1.2844   -1.0736   -0.0000 C   0  0  0  0  0  0  0  0  0  0  0  0
   -2.5005   -1.7802    0.0000 C   0  0  0  0  0  0  0  0  0  0  0  0
   -3.7154   -1.0985    0.0000 C   0  0  0  0  0  0  0  0  0  0  0  0
   -3.7350    0.2935    0.0000 C   0  0  0  0  0  0  0  0  0  0  0  0
   -2.5375    1.0209    0.0000 C   0  0  0  0  0  0  0  0  0  0  0  0
   -2.5908    2.4151    0.0000 O   0  0  0  0  0  0  0  0  0  0  0  0
   -1.2942    0.3402   -0.0000 C   0  0  0  0  0  0  0  0  0  0  0  0
   -0.0000    1.0789   -0.0000 C   0  0  0  0  0  0  0  0  0  0  0  0
   -0.0000    2.3397   -0.0000 O   0  0  0  0  0  0  0  0  0  0  0  0
    1.2942    0.3402   -0.0000 C   0  0  0  0  0  0  0  0  0  0  0  0
    2.5375    1.0209    0.0000 C   0  0  0  0  0  0  0  0  0  0  0  0
    2.5908    2.4151   -0.0000 O   0  0  0  0  0  0  0  0  0  0  0  0
    3.7350    0.2935    0.0000 C   0  0  0  0  0  0  0  0  0  0  0  0
    3.7154   -1.0985    0.0000 C   0  0  0  0  0  0  0  0  0  0  0  0
    2.5005   -1.7802    0.0000 C   0  0  0  0  0  0  0  0  0  0  0  0
    1.2844   -1.0736    0.0000 C   0  0  0  0  0  0  0  0  0  0  0  0
  1  2  2  0
  2  3  1  0
  3  4  2  0
  4  5  1  0
  5  6  2  0
  6  7  1  0
  7  8  1  0
  7  9  2  0
  9 10  1  0
 10 11  2  0
 10 12  1  0
 12 13  2  0
 13 14  1  0
 13 15  1  0
 15 16  2  0
 16 17  1  0
 17 18  2  0
 18  2  1  0
  9  3  1  0
 18 12  1  0
M  END
>  <SMILES>  (50) 
O=C1c2cccc(O)c2C(=O)c2c(O)cccc21

>  <fragment_id>  (50) 
O=C1c2cccc(O)c2C(=O)c2c(O)cccc21_23

$$$$
